Version 4
SHEET 1 880 680
WIRE 192 32 176 32
WIRE 368 32 272 32
WIRE 336 96 240 96
WIRE 336 128 336 96
WIRE 240 208 240 176
WIRE -80 224 -112 224
WIRE 96 224 -80 224
WIRE 176 224 176 32
WIRE 208 224 176 224
WIRE 368 240 368 32
WIRE 368 240 272 240
WIRE 432 240 368 240
WIRE -80 256 -80 224
WIRE 208 256 160 256
WIRE 160 272 160 256
WIRE 240 304 240 272
WIRE -80 368 -80 336
WIRE 240 416 240 384
FLAG 160 272 0
FLAG -80 368 0
FLAG 432 240 out
IOPIN 432 240 Out
FLAG -112 224 in
IOPIN -112 224 In
FLAG 336 128 0
FLAG 240 416 0
SYMBOL Opamps\\LT1007 240 176 R0
SYMATTR InstName U1
SYMBOL voltage 240 288 R0
WINDOW 123 0 0 Left 0
WINDOW 39 0 0 Left 0
SYMATTR InstName V1
SYMATTR Value -10
SYMBOL voltage 240 192 R180
WINDOW 0 24 96 Left 2
WINDOW 3 24 16 Left 2
WINDOW 123 0 0 Left 0
WINDOW 39 0 0 Left 0
SYMATTR InstName V2
SYMATTR Value 10
SYMBOL res 192 208 R90
WINDOW 0 0 56 VBottom 2
WINDOW 3 32 56 VTop 2
SYMATTR InstName R1
SYMATTR Value 1k
SYMBOL res 288 16 R90
WINDOW 0 0 56 VBottom 2
WINDOW 3 32 56 VTop 2
SYMATTR InstName R2
SYMATTR Value 4k
SYMBOL voltage -80 240 R0
WINDOW 123 24 124 Left 2
WINDOW 39 0 0 Left 0
SYMATTR Value2 AC 1
SYMATTR InstName V3
SYMATTR Value SINE(0 1 1k)
TEXT -192 440 Left 2 !.tran 20m
