Version 4
SHEET 1 892 680
WIRE 432 -416 352 -416
WIRE 432 -368 432 -416
WIRE 352 -304 352 -336
WIRE 352 -304 32 -304
WIRE 352 -192 352 -304
WIRE 32 -80 32 -304
WIRE 352 -48 352 -112
WIRE 352 -32 352 -48
WIRE 416 -32 352 -32
WIRE 544 -32 480 -32
WIRE 576 -32 544 -32
WIRE 352 -16 352 -32
WIRE 544 0 544 -32
WIRE -368 32 -416 32
WIRE -176 32 -368 32
WIRE 32 32 32 0
WIRE 32 32 -112 32
WIRE 176 32 32 32
WIRE 288 32 176 32
WIRE 32 64 32 32
WIRE -368 96 -368 32
WIRE 352 112 352 80
WIRE 448 112 352 112
WIRE 544 112 544 80
WIRE 352 144 352 112
WIRE 448 144 448 112
WIRE 32 176 32 144
WIRE -368 208 -368 176
WIRE 352 240 352 224
WIRE 448 240 448 208
WIRE 448 240 352 240
WIRE 352 256 352 240
FLAG -368 208 0
FLAG -416 32 in
IOPIN -416 32 In
FLAG 576 -32 out
IOPIN 576 -32 Out
FLAG 176 32 Vb
FLAG 352 -48 Vc
FLAG 352 80 Ve
FLAG 544 112 0
FLAG 352 256 0
FLAG 32 176 0
FLAG 432 -368 0
SYMBOL res 16 -96 R0
SYMATTR InstName R1
SYMATTR Value 2.74k
SYMBOL npn 288 -16 R0
WINDOW 3 95 56 Left 2
SYMATTR Value 2N2219A
SYMATTR InstName Q1
SYMBOL cap 480 -48 R90
WINDOW 0 0 32 VBottom 2
WINDOW 3 32 32 VTop 2
SYMATTR InstName C1
SYMATTR Value 10µ
SYMBOL cap -112 16 R90
WINDOW 0 0 32 VBottom 2
WINDOW 3 32 32 VTop 2
SYMATTR InstName C2
SYMATTR Value 10µ
SYMBOL voltage -368 80 R0
WINDOW 123 24 124 Left 2
WINDOW 39 0 0 Left 0
SYMATTR Value2 AC 1
SYMATTR InstName V3
SYMATTR Value SINE(0 200m 1Meg)
SYMBOL res 528 -16 R0
SYMATTR InstName R5
SYMATTR Value 1Meg
SYMBOL res 336 128 R0
SYMATTR InstName R2
SYMATTR Value 12.1
SYMBOL cap 432 144 R0
SYMATTR InstName C3
SYMATTR Value 10µ
SYMBOL res 16 48 R0
SYMATTR InstName R4
SYMATTR Value 1.78k
SYMBOL voltage 352 -320 R180
WINDOW 0 24 96 Left 2
WINDOW 3 24 16 Left 2
WINDOW 123 0 0 Left 0
WINDOW 39 0 0 Left 0
SYMATTR InstName V2
SYMATTR Value 10
SYMBOL res 336 -208 R0
SYMATTR InstName R3
SYMATTR Value 20
TEXT -480 -144 Left 2 !.op
