Version 4
SHEET 1 880 680
WIRE 480 -160 336 -160
WIRE 336 -144 336 -160
WIRE 496 -32 432 -32
WIRE 656 -32 576 -32
WIRE 480 80 480 -80
WIRE 432 96 432 -32
WIRE 432 96 368 96
WIRE 448 96 432 96
WIRE 656 112 656 -32
WIRE 656 112 512 112
WIRE 80 128 -64 128
WIRE 256 128 160 128
WIRE 448 128 256 128
WIRE 80 160 80 128
WIRE 160 160 160 128
WIRE 480 160 480 144
WIRE -64 192 -64 128
WIRE 256 208 256 128
FLAG 288 96 0
FLAG 480 240 0
FLAG 336 -144 0
FLAG 256 288 0
FLAG -64 272 0
SYMBOL res 176 144 R90
WINDOW 0 0 56 VBottom 2
WINDOW 3 32 56 VTop 2
SYMATTR InstName R1
SYMATTR Value 2.2k
SYMBOL res 272 304 R180
WINDOW 0 36 76 Left 2
WINDOW 3 36 40 Left 2
SYMATTR InstName R2
SYMATTR Value 4.7k
SYMBOL res 272 112 R270
WINDOW 0 32 56 VTop 2
WINDOW 3 0 56 VBottom 2
SYMATTR InstName R3
SYMATTR Value 2k
SYMBOL res 480 -16 R270
WINDOW 0 32 56 VTop 2
WINDOW 3 0 56 VBottom 2
SYMATTR InstName R4
SYMATTR Value 10k
SYMBOL Opamps\\LT1097 480 48 R0
SYMATTR InstName U1
SYMBOL voltage 480 144 R0
WINDOW 123 0 0 Left 0
WINDOW 39 0 0 Left 0
SYMATTR InstName V1
SYMATTR Value -10
SYMBOL voltage 480 -64 R180
WINDOW 0 24 96 Left 2
WINDOW 3 24 16 Left 2
WINDOW 123 0 0 Left 0
WINDOW 39 0 0 Left 0
SYMATTR InstName V2
SYMATTR Value 10
SYMBOL voltage -64 176 R0
WINDOW 123 24 124 Left 2
WINDOW 39 0 0 Left 0
SYMATTR InstName V3
SYMATTR Value SINE(0 1 1k)
SYMATTR Value2 AC 1
TEXT -98 320 Left 2 !.ac dec 200 1 10Meg
