Version 4
SHEET 1 880 680
SYMBOL npn 192 176 R0
SYMATTR InstName Q1
SYMATTR Value 2SC5876
