Version 4
SHEET 1 880 680
WIRE 208 112 32 112
WIRE 496 128 464 128
WIRE 608 128 576 128
WIRE 32 144 32 112
WIRE 608 160 608 128
WIRE 736 160 608 160
WIRE 464 176 464 128
WIRE 608 176 608 160
WIRE 208 208 208 192
WIRE 464 272 464 256
WIRE 608 272 608 240
WIRE 608 272 464 272
WIRE 736 272 736 240
WIRE 736 272 608 272
WIRE 608 288 608 272
FLAG 208 272 0
FLAG 32 224 0
FLAG 608 288 0
SYMBOL ind 192 96 R0
SYMATTR InstName L1
SYMATTR Value 2.2n
SYMBOL cap 192 208 R0
SYMATTR InstName C1
SYMATTR Value 1µ
SYMBOL voltage 32 128 R0
WINDOW 123 24 124 Left 2
WINDOW 39 0 0 Left 0
SYMATTR InstName V1
SYMATTR Value ""
SYMATTR Value2 AC 1
SYMBOL voltage 464 160 R0
WINDOW 123 24 124 Left 2
WINDOW 39 0 0 Left 0
SYMATTR InstName V2
SYMATTR Value ""
SYMATTR Value2 AC 1
SYMBOL cap 592 176 R0
SYMATTR InstName C2
SYMATTR Value 1µ
SYMBOL ind 720 144 R0
SYMATTR InstName L2
SYMATTR Value 2.2n
SYMBOL ind 480 144 R270
WINDOW 0 32 56 VTop 2
WINDOW 3 5 56 VBottom 2
SYMATTR InstName L3
SYMATTR Value 2.2n
TEXT -2 296 Left 2 !.ac dec 100 100k 100Meg
