******
*SRC=2SC5551A;2SC5551A;BJTs NPN; Si;  30.0V  0.30A  3500MHz   Central Semi Central Semi
.MODEL 2SC5551A  NPN (
+ IS=4.58E-15
+ BF=150
+ VAF=35
+ IKF=1.2
+ ISE=5E-15
+ NE=1.6
+ BR=35
+ NR=1.001
+ VAR=20
+ IKR=10.98E-3
+ ISC=255.95E-15
+ NC=1.5
+ RB=1.5
+ IRB=300E-3
+ RBM=300E-3
+ RE=280E-3
+ RC=1.25
+ XTB=0
+ EG=1.11
+ XTI=3
+ CJE=2.36E-12
+ VJE=199E-3
+ MJE=73.2E-3
+ CJC=3.08E-12
+ VJC=520E-3
+ MJC=380.8E-3
+ XCJC=1.15E-3
+ TF=30.5E-12
+ XTF=13.45E-3
+ VTF=280E-3
+ ITF=25.80E-3
+ PTF=25.7
+ TR=1.38E-9
+ FC=1.51E-3 )
******
