******
*SRC=NSVF40205G4-D;NSVF40205G4-D;BJTs NPN; Si;  15.0V  0.150A  16000MHz   Central Semi Central Semi
.MODEL 2SC5551A  NPN (
+ IS=2.155E-15
+ BF=122
+ NF=1.05
+ VAF=8
+ IKF=1.05
+ ISE=1.384E-12
+ NE=2.278
+ BR=14
+ NR=1.0042
+ VAR=4
+ IKR=360E-3
+ ISC=140E-15
+ NC=1.6
+ RB=2
+ IRB=1.5
+ RBM=25E-3
+ RE=450E-3
+ RC=1.2
+ XTB=0
+ EG=1.11
+ XTI=1
+ CJE=2.476E-12
+ VJE=750E-3
+ MJE=10E-3
+ CJC=3.08E-12
+ VJC=520E-3
+ MJC=380.8E-3
+ XCJC=1.15E-3
+ TF=6.7E-12
+ XTF=50E-15
+ VTF=750E-3
+ ITF=50
+ PTF=200E-3
+ CJC=175E-15
+ VJC=200E-15
+ MJC=1.150E-12
+ XCJC=1
+ TR=0
+ FC=500E-3
+ CJS=550E-15
+ VJS=150E-3
+ MJS=136E-3 )
******
