Q1 1 3 2 MCH4020-TL-H

.MODEL MCH4020-TL-H	 NPN(
+	IS	=	2.155E-012
+	BF	=	122
+	NF	=	1.05
+	VAF	=	8
+	IKF	=	206.4E-003
+	ISE	=	1.384E-012
+	NE	=	2.278
+	BR	=	14
+	NR	=	1.042
+	VAR	=	4
+	IKR	=	360.0E-003
+	ISC	=	140.0E-012
+	NC	=	1.6
+	RB	=	2
+	IRB	=	1.5
+	RBM	=	25.00E-003
+	RE	=	450.0E-003
+	RC	=	1.2
+	XTB	=	0
+	EG	=	1.11
+	XTI	=	1
+	CJE	=	2.476E-012
+	VJE	=	750.0E-003
+	MJE	=	10.00E-003
+	TF	=	6.700E-012
+	XTF	=	50.00E-015
+	VTF	=	750.0E-003
+	ITF	=	50
+	PTF	=	200.0E-003
+	CJC	=	175.0E-015
+	VJC	=	200.0E-015
+	MJC	=	1.150E-012
+	XCJC	=	1
+	TR	=	0
+	FC	=	500.0E-003
+	CJS	=	550.0E-015
+	VJS	=	150.0E-003
+	MJS	=	136.0E-003
+	Lfc	=	110.0E-012
+	Lwb	=	850.0E-012
+	Lfb	=	73.0E-012
+	Lwe	=	145.0E-012
+	Lfe	=	280.0E-012
+	Cbc	=	325.0E-015
+	Ceb	=	175.0E-015
+	Cce	=	120.0E-015
)
